/*--------------------------------*- C++ -*----------------------------------*\
  =========                 |
  \\      /  F ield         | OpenFOAM: The Open Source CFD Toolbox
   \\    /   O peration     | Website:  https://openfoam.org
    \\  /    A nd           | Version:  10
     \\/     M anipulation  |
\*---------------------------------------------------------------------------*/
FoamFile
{
    format          ascii;
    class           dictionary;
    location        "system";
    object          controlDict;
}
// * * * * * * * * * * * * * * * * * * * * * * * * * * * * * * * * * * * * * //

DebugSwitches
{
}

application     pimpleIbFoam;

startFrom       startTime;

startTime       0;

stopAt          endTime;

endTime         0.6;

deltaT          0.001;

writeControl    runTime;

writeInterval   0.6;

purgeWrite      0;

writeFormat     ascii;

writePrecision  6;

writeCompression off;

timeFormat      general;

timePrecision   6;

runTimeModifiable true;

libs            ( "libMMPimmersedBoundary.so" "libMMPmovingImmersedBoundary.so" );

functions
{
    writeObjects1
    {
        type            writeObjects;
        libs            ( "libutilityFunctionObjects.so" );
        writeControl    timeStep;
        writeInterval   5;
        objects         ( ".*nu" U p phi IBMProperties );
        writeOption     anyWrite;
        startTime       0.3;
    }
}


// ************************************************************************* //
